/*--------------------------------*- C++ -*----------------------------------*\
| =========                 |                                                 |
| \\      /  F ield         | OpenFOAM: The Open Source CFD Toolbox           |
|  \\    /   O peration     | Version:  dev                                   |
|   \\  /    A nd           | Web:      www.OpenFOAM.org                      |
|    \\/     M anipulation  |                                                 |
\*---------------------------------------------------------------------------*/
FoamFile
{
    version     2.0;
    format      ascii;
    class       dictionary;
    location    "system";
    object      controlDict;
}
// * * * * * * * * * * * * * * * * * * * * * * * * * * * * * * * * * * * * * //

application     interFoam;

startFrom       latestTime;

startTime       0;

stopAt          endTime;

endTime         1.0;

deltaT          1e-5;

writeControl    adjustableRunTime;

writeInterval   0.001;

purgeWrite      0;

writeFormat     binary;

writePrecision  6;

writeCompression uncompressed;

timeFormat      general;

timePrecision   10;

runTimeModifiable yes;

adjustTimeStep  yes;

maxCo           2;

maxAlphaCo      1;

maxDeltaT       1;

functions
{
    fieldAverage1
    {
        type fieldAverage;
        libs ("libfieldFunctionObjects.so");
        writeControl timeStep;

        fields
        (
            U
            {
                mean            on;
                prime2Mean      on;
                base            time;
            }
            p
            {
                mean            on;
                prime2Mean      on;
                base            time;
            }
        );
    }
}
// ************************************************************************* //
