/*--------------------------------*- C++ -*----------------------------------*\
| =========                 |                                                 |
| \\      /  F ield         | OpenFOAM: The Open Source CFD Toolbox           |
|  \\    /   O peration     | Version:  2.3.0                                 |
|   \\  /    A nd           | Web:      www.OpenFOAM.org                      |
|    \\/     M anipulation  |                                                 |
\*---------------------------------------------------------------------------*/
FoamFile
{
    version     2.0;
    format      ascii;
    class       dictionary;
    location    "constant";
    object      transportProperties;
}
// * * * * * * * * * * * * * * * * * * * * * * * * * * * * * * * * * * * * * //
#include "../caseGlobalVariables"

phases (water steam);

water
{
    transportModel  Newtonian;
    nu              nu [ 0 2 -1 0 0 0 0 ] $nuw; //.117e-06;
    rho             rho [ 1 -3 0 0 0 0 0 ] $rhow;
}

steam
{
    transportModel  Newtonian;
    nu              nu [ 0 2 -1 0 0 0 0 ] $nus;
    rho             rho [ 1 -3 0 0 0 0 0 ] $rhos;
}

sigma           sigma [ 1 0 -2 0 0 0 0 ] $surfaceTension;


// ************************************************************************* //
