/*--------------------------------*- C++ -*----------------------------------*\
| =========                 |                                                 |
| \\      /  F ield         | OpenFOAM: The Open Source CFD Toolbox           |
|  \\    /   O peration     | Version:  2.3.0                                 |
|   \\  /    A nd           | Web:      www.OpenFOAM.org                      |
|    \\/     M anipulation  |                                                 |
\*---------------------------------------------------------------------------*/
FoamFile
{
    version     2.0;
    format      ascii;
    class       dictionary;
    location    "system";
    object      controlDict;
}
// * * * * * * * * * * * * * * * * * * * * * * * * * * * * * * * * * * * * * //

application     interFoam;

startFrom       latestTime;

startTime       latestTime;

stopAt          endTime;

endTime         60;

deltaT          1e-5;

writeControl    adjustableRunTime;

writeInterval   0.1;

purgeWrite      0;

writeFormat     ascii;

writePrecision  7;

writeCompression compressed;

timeFormat      general;

timePrecision   6;

runTimeModifiable yes;

adjustTimeStep  on;

maxCo           5;
maxAlphaCo      1;

maxDeltaT       1;

functions
{
    carryover
    {
        type            faceSource;
        functionObjectLibs ("libfieldFunctionObjects.so");
        enabled         yes;
        outputControl   runTime;
        writeInterval   0.001;
        log             yes;
        valueOutput     no;
        source          patch;
        sourceName      outlet;
        operation       average;
        surfaceFormat   raw;
        
        fields
        (
            alpha.water
        );
    }

}



// ************************************************************************* //
