/*--------------------------------*- C++ -*----------------------------------*\
| =========                 |                                                 |
| \\      /  F ield         | OpenFOAM: The Open Source CFD Toolbox           |
|  \\    /   O peration     | Version:  2.1.1                                 |
|   \\  /    A nd           | Web:      www.OpenFOAM.org                      |
|    \\/     M anipulation  |                                                 |
\*---------------------------------------------------------------------------*/
FoamFile
{
    version     2.0;
    format      ascii;
    class       dictionary;
    location    "system";
    object      decomposeParDict;
}
// * * * * * * * * * * * * * * * * * * * * * * * * * * * * * * * * * * * * * //

numberOfSubdomains 60;

method          scotch;
//method 		 hierarchical;

simpleCoeffs
{
    n               ( 4 2 1 );
    delta           0.001;
}

hierarchicalCoeffs
{
    n               ( 2 3 2 );
    delta           0.001;
    order           xyz;
}

scotchCoeffs
{
//	processorWeights (4 4 4 4 4  4 4 4 4 4  4 4 4 4 4  4 4 4 4 4  4 4 4 4  3 3 3 3 3 3 3 3 3 3 3 3 );
}

manualCoeffs
{
    dataFile        "";
}

distributed     no;

roots           ( );


// ************************************************************************* //
